147

Au 0 0 0
Au 2.33344 0 1.44214
Au 2.33344 0 -1.44214
Au 1.44214 2.33344 0
Au -1.44214 2.33344 0
Au 0 1.44214 2.33344
Au 0 -1.44214 2.33344
Au 1.44214 -2.33344 0
Au 0 1.44214 -2.33344
Au -2.33344 0 1.44214
Au 0 -1.44214 -2.33344
Au -2.33344 0 -1.44214
Au -1.44214 -2.33344 0
Au 4.66688 0 2.88429
Au 4.66688 0 -2.88429
Au 2.88429 4.66688 0
Au -2.88429 4.66688 0
Au 0 2.88429 4.66688
Au 0 -2.88429 4.66688
Au 2.88429 -4.66688 0
Au 0 2.88429 -4.66688
Au -4.66688 0 2.88429
Au 0 -2.88429 -4.66688
Au -4.66688 0 -2.88429
Au -2.88429 -4.66688 0
Au 4.66688 0 0
Au 3.77558 2.33344 1.44214
Au 2.33344 1.44214 3.77558
Au 2.33344 -1.44214 3.77558
Au 3.77558 -2.33344 1.44214
Au -3.77558 2.33344 -1.44214
Au -2.33344 1.44214 -3.77558
Au -4.66688 0 0
Au -2.33344 -1.44214 -3.77558
Au -3.77558 -2.33344 -1.44214
Au 3.77558 2.33344 -1.44214
Au 3.77558 -2.33344 -1.44214
Au 2.33344 1.44214 -3.77558
Au 2.33344 -1.44214 -3.77558
Au -3.77558 2.33344 1.44214
Au -2.33344 1.44214 3.77558
Au -2.33344 -1.44214 3.77558
Au -3.77558 -2.33344 1.44214
Au 0 4.66688 0
Au 1.44214 3.77558 2.33344
Au 1.44214 3.77558 -2.33344
Au -1.44214 -3.77558 2.33344
Au 0 -4.66688 0
Au -1.44214 -3.77558 -2.33344
Au 1.44214 -3.77558 2.33344
Au 1.44214 -3.77558 -2.33344
Au -1.44214 3.77558 2.33344
Au -1.44214 3.77558 -2.33344
Au 0 0 -4.66688
Au 0 0 4.66688
Au 7.00032 0 4.32643
Au 7.00032 0 -4.32643
Au 4.32643 7.00032 0
Au -4.32643 7.00032 0
Au 0 4.32643 7.00032
Au 0 -4.32643 7.00032
Au 4.32643 -7.00032 0
Au 0 4.32643 -7.00032
Au -7.00032 0 4.32643
Au 0 -4.32643 -7.00032
Au -7.00032 0 -4.32643
Au -4.32643 -7.00032 0
Au 7.00032 0 1.44214
Au 7.00032 0 -1.44214
Au 6.10902 2.33344 2.88429
Au 5.21773 4.66688 1.44214
Au 4.66688 1.44214 5.21773
Au 2.33344 2.88429 6.10902
Au 4.66688 -1.44214 5.21773
Au 2.33344 -2.88429 6.10902
Au 6.10902 -2.33344 2.88429
Au 5.21773 -4.66688 1.44214
Au -6.10902 2.33344 -2.88429
Au -5.21773 4.66688 -1.44214
Au -4.66688 1.44214 -5.21773
Au -2.33344 2.88429 -6.10902
Au -7.00032 0 -1.44214
Au -7.00032 0 1.44214
Au -4.66688 -1.44214 -5.21773
Au -2.33344 -2.88429 -6.10902
Au -6.10902 -2.33344 -2.88429
Au -5.21773 -4.66688 -1.44214
Au 6.10902 2.33344 -2.88429
Au 5.21773 4.66688 -1.44214
Au 6.10902 -2.33344 -2.88429
Au 5.21773 -4.66688 -1.44214
Au 4.66688 1.44214 -5.21773
Au 2.33344 2.88429 -6.10902
Au 4.66688 -1.44214 -5.21773
Au 2.33344 -2.88429 -6.10902
Au -6.10902 2.33344 2.88429
Au -5.21773 4.66688 1.44214
Au -4.66688 1.44214 5.21773
Au -2.33344 2.88429 6.10902
Au -4.66688 -1.44214 5.21773
Au -2.33344 -2.88429 6.10902
Au -6.10902 -2.33344 2.88429
Au -5.21773 -4.66688 1.44214
Au 1.44214 7.00032 0
Au -1.44214 7.00032 0
Au 2.88429 6.10902 2.33344
Au 1.44214 5.21773 4.66688
Au 2.88429 6.10902 -2.33344
Au 1.44214 5.21773 -4.66688
Au -2.88429 -6.10902 2.33344
Au -1.44214 -5.21773 4.66688
Au -1.44214 -7.00032 0
Au 1.44214 -7.00032 0
Au -2.88429 -6.10902 -2.33344
Au -1.44214 -5.21773 -4.66688
Au 2.88429 -6.10902 2.33344
Au 1.44214 -5.21773 4.66688
Au 2.88429 -6.10902 -2.33344
Au 1.44214 -5.21773 -4.66688
Au -2.88429 6.10902 2.33344
Au -1.44214 5.21773 4.66688
Au -2.88429 6.10902 -2.33344
Au -1.44214 5.21773 -4.66688
Au 0 1.44214 -7.00032
Au 0 -1.44214 -7.00032
Au 0 -1.44214 7.00032
Au 0 1.44214 7.00032
Au 6.10902 2.33344 0
Au 3.77558 3.77558 3.77558
Au 2.33344 0 6.10902
Au 3.77558 -3.77558 3.77558
Au 6.10902 -2.33344 0
Au -3.77558 3.77558 -3.77558
Au -6.10902 2.33344 0
Au -6.10902 -2.33344 0
Au -3.77558 -3.77558 -3.77558
Au -2.33344 0 -6.10902
Au 3.77558 3.77558 -3.77558
Au 2.33344 0 -6.10902
Au 3.77558 -3.77558 -3.77558
Au -3.77558 -3.77558 3.77558
Au -2.33344 0 6.10902
Au -3.77558 3.77558 3.77558
Au 0 6.10902 -2.33344
Au 0 6.10902 2.33344
Au 0 -6.10902 2.33344
Au 0 -6.10902 -2.33344
