55

Au 0 0 0
Au 2.33344 0 1.44214
Au 2.33344 0 -1.44214
Au 1.44214 2.33344 0
Au -1.44214 2.33344 0
Au 0 1.44214 2.33344
Au 0 -1.44214 2.33344
Au 1.44214 -2.33344 0
Au 0 1.44214 -2.33344
Au -2.33344 0 1.44214
Au 0 -1.44214 -2.33344
Au -2.33344 0 -1.44214
Au -1.44214 -2.33344 0
Au 4.66688 0 2.88429
Au 4.66688 0 -2.88429
Au 2.88429 4.66688 0
Au -2.88429 4.66688 0
Au 0 2.88429 4.66688
Au 0 -2.88429 4.66688
Au 2.88429 -4.66688 0
Au 0 2.88429 -4.66688
Au -4.66688 0 2.88429
Au 0 -2.88429 -4.66688
Au -4.66688 0 -2.88429
Au -2.88429 -4.66688 0
Au 4.66688 0 0
Au 3.77558 2.33344 1.44214
Au 2.33344 1.44214 3.77558
Au 2.33344 -1.44214 3.77558
Au 3.77558 -2.33344 1.44214
Au -3.77558 2.33344 -1.44214
Au -2.33344 1.44214 -3.77558
Au -4.66688 0 0
Au -2.33344 -1.44214 -3.77558
Au -3.77558 -2.33344 -1.44214
Au 3.77558 2.33344 -1.44214
Au 3.77558 -2.33344 -1.44214
Au 2.33344 1.44214 -3.77558
Au 2.33344 -1.44214 -3.77558
Au -3.77558 2.33344 1.44214
Au -2.33344 1.44214 3.77558
Au -2.33344 -1.44214 3.77558
Au -3.77558 -2.33344 1.44214
Au 0 4.66688 0
Au 1.44214 3.77558 2.33344
Au 1.44214 3.77558 -2.33344
Au -1.44214 -3.77558 2.33344
Au 0 -4.66688 0
Au -1.44214 -3.77558 -2.33344
Au 1.44214 -3.77558 2.33344
Au 1.44214 -3.77558 -2.33344
Au -1.44214 3.77558 2.33344
Au -1.44214 3.77558 -2.33344
Au 0 0 -4.66688
Au 0 0 4.66688
